/*--------------------------------*- C++ -*----------------------------------*\
  =========                 |
  \\      /  F ield         | OpenFOAM: The Open Source CFD Toolbox
   \\    /   O peration     | Website:  https://openfoam.org
    \\  /    A nd           | Version:  8
     \\/     M anipulation  |
\*---------------------------------------------------------------------------*/
FoamFile
{
    version     2.0;
    format      ascii;
    class       dictionary;
    object      blockMeshDict;
}
// * * * * * * * * * * * * * * * * * * * * * * * * * * * * * * * * * * * * * //



convertToMeters 1;
vertices

(
  (0 0 0) // 1
  (1 0 0) // 2
  (1 1 0) // 3
  (0 1 0) // 4
  (0 0 0.01) // 5
  (1 0 0.01) // 6
  (1 1 0.01) // 7
  (0 1 0.01) // 8

);

blocks
(
  hex (0 1 2 3 4 5 6 7)
      (20 20 1)
  
   simpleGrading (1 1 1)

);

boundary
(
  front
  {
    type patch;
    faces
    (
       (0 1 5 4)
    );
    
  }

  back
  {
    type patch;
    faces
    (
       (2 3 7 6)
    );
    
  }

  left
  {
    type patch;
    faces
    (
       (0 4 7 3)
    );
    
  }

  right
  {
    type patch;
    faces
    (
       (1 2 6 5)
    );
    
  }

  top
  {
    type patch;
    faces
    (
       (4 5 6 7)
    );
    
  }

  bottom
  {
    type patch;
    faces
    (
       (0 3 2 1)
    );
    
  }
);



// ************************************************************************* //
