/*--------------------------------*- C++ -*----------------------------------*\
  =========                 |
  \\      /  F ield         | OpenFOAM: The Open Source CFD Toolbox
   \\    /   O peration     | Website:  https://openfoam.org
    \\  /    A nd           | Version:  8
     \\/     M anipulation  |
\*---------------------------------------------------------------------------*/
FoamFile
{
    version     2.0;
    format      ascii;
    class       polyBoundaryMesh;
    location    "constant/polyMesh";
    object      boundary;
}
// * * * * * * * * * * * * * * * * * * * * * * * * * * * * * * * * * * * * * //

6
(
    front
    {
        type            patch;
        nFaces          20;
        startFace       760;
    }
    back
    {
        type            patch;
        nFaces          20;
        startFace       780;
    }
    left
    {
        type            patch;
        nFaces          20;
        startFace       800;
    }
    right
    {
        type            patch;
        nFaces          20;
        startFace       820;
    }
    top
    {
        type            patch;
        nFaces          400;
        startFace       840;
    }
    bottom
    {
        type            patch;
        nFaces          400;
        startFace       1240;
    }
)

// ************************************************************************* //
